contingency/peak_load/60pc/TNB_DUMA_EXP_SEQVOLTAGES.CSV
Bus,  V1,  p.u.,Base kV, V2, %V2/V1, V0, %V0/V1, Vresidual, %NEMA
"PPU_DUMA_33KV",    18802.9,    0.9869,    33.00, 9.25585E-006, 4.923E-008, 1.23938E-006, 6.591E-009, 3.71815E-006, 7.736E-009
"PPU_DUMA_11KV",    5681.91,   0.89467,    11.00, 3.50808E-006, 6.174E-008, 1.49565E-006, 2.632E-008, 4.48694E-006, 1.617E-008
"RPPLNGI2",     5753.1,   0.90588,    11.00, 3.52915E-006, 6.134E-008, 1.53107E-006, 2.661E-008, 4.5932E-006, 1.576E-008
"PDTJLNMASJID",    5806.75,   0.91433,    11.00, 3.5451E-006, 6.105E-008, 1.55776E-006, 2.683E-008, 4.67328E-006, 1.545E-008
"BELLA",    5842.65,   0.91998,    11.00, 3.55579E-006, 6.086E-008, 1.57562E-006, 2.697E-008, 4.72685E-006, 1.525E-008
"PSTPDGN",    5860.62,   0.92281,    11.00, 3.56116E-006, 6.076E-008, 1.58456E-006, 2.704E-008, 4.75369E-006, 1.516E-008
"PAMDRA",    5691.21,   0.89613,    11.00, 3.51183E-006, 6.171E-008, 1.49966E-006, 2.635E-008, 4.49898E-006, 1.613E-008
"DUMA4",    5722.26,   0.90102,    11.00, 3.52311E-006, 6.157E-008, 1.6986E-006, 2.968E-008, 5.09581E-006, 1.599E-008
"PLSDRA",    5788.93,   0.91152,    11.00, 3.54825E-006, 6.129E-008, 2.0644E-006, 3.566E-008, 6.19319E-006, 1.572E-008
"SSU_UPTWRES_IR1",    5797.21,   0.91282,    11.00, 3.55012E-006, 6.124E-008, 2.06968E-006, 3.57E-008, 6.20905E-006, 1.566E-008
"ATRIA_1",     5797.5,   0.91287,    11.00, 3.5485E-006, 6.121E-008, 1.54689E-006, 2.668E-008, 4.64067E-006, 1.561E-008
"HAWKER",    5816.21,   0.91582,    11.00, 3.54999E-006, 6.104E-008, 1.58649E-006, 2.728E-008, 4.75948E-006, 1.542E-008
"PRMTE",    5728.43,   0.90199,    11.00, 3.51284E-006, 6.132E-008, 1.87126E-006, 3.267E-008, 5.61377E-006, 1.573E-008
"PRMTA",    5737.38,    0.9034,    11.00, 3.51458E-006, 6.126E-008, 1.87689E-006, 3.271E-008, 5.63066E-006, 1.567E-008
"PMONTB",    5747.16,   0.90494,    11.00, 3.51814E-006, 6.122E-008, 1.92866E-006, 3.356E-008, 5.78598E-006, 1.563E-008
"DUMA7",    5711.48,   0.89932,    11.00, 3.57439E-006, 6.258E-008, 1.45848E-006, 2.554E-008, 4.37543E-006, 1.686E-008
"HAUS",    5778.73,   0.90991,    11.00, 3.65284E-006, 6.321E-008, 5.17771E-006, 8.96E-008, 1.55331E-005, 1.759E-008
"DUMA6",    5963.52,   0.93901,    11.00, 3.95698E-006, 6.635E-008, 2.3835E-005, 3.997E-007, 7.1505E-005, 2.688E-008
"DUMA13",    6135.05,   0.96602,    11.00, 4.34579E-006, 7.084E-008, 4.40674E-005, 7.183E-007, 0.000132202, 3.601E-008
"SSU_DUMA5_IM2",    6154.95,   0.96915,    11.00, 4.43732E-006, 7.209E-008, 4.43068E-005, 7.199E-007, 0.00013292, 3.758E-008
"PLNGI_B",    5731.25,   0.90244,    11.00, 3.52668E-006, 6.153E-008, 1.51531E-006, 2.644E-008, 4.54592E-006, 1.595E-008
"PLNGI_D",    5758.34,    0.9067,    11.00, 3.53746E-006, 6.143E-008, 1.52561E-006, 2.649E-008, 4.57684E-006, 1.585E-008
"PDTLITRAK",    5886.19,   0.92683,    11.00, 3.58032E-006, 6.083E-008, 1.61262E-006, 2.74E-008, 4.83786E-006, 1.521E-008
"DUMA12",    5969.36,   0.93993,    11.00, 3.60991E-006, 6.047E-008, 1.66117E-006, 2.783E-008, 4.9835E-006, 1.485E-008
"TMNGH4",    6051.35,   0.95284,    11.00, 3.64311E-006, 6.02E-008, 2.16429E-006, 3.577E-008, 6.49287E-006, 1.458E-008
"SSU_TMEGAH3_IR1",    6083.93,   0.95797,    11.00, 3.65622E-006, 6.01E-008, 2.37091E-006, 3.897E-008, 7.11272E-006, 1.447E-008
"TMNGH2",    6097.09,   0.96004,    11.00, 3.66145E-006, 6.005E-008, 2.45742E-006, 4.03E-008, 7.37226E-006, 1.443E-008
"SPRK9",    5829.55,   0.91792,    11.00, 3.54745E-006, 6.085E-008, 1.57624E-006, 2.704E-008, 4.72872E-006, 1.525E-008
"BOMBA",    5838.92,   0.91939,    11.00, 3.55077E-006, 6.081E-008, 1.62354E-006, 2.781E-008, 4.8706E-006, 1.521E-008
"SPRK8",    5862.26,   0.92307,    11.00, 3.55902E-006, 6.071E-008, 1.74513E-006, 2.977E-008, 5.23537E-006, 1.511E-008
"SSU_UPTWRES_IM2",    5710.07,    0.8991,    11.00, 3.51874E-006, 6.162E-008, 1.63326E-006, 2.86E-008, 4.89979E-006, 1.604E-008
"MAYBANK",    5757.54,   0.90658,    11.00, 3.53589E-006, 6.141E-008, 1.65409E-006, 2.873E-008, 4.96226E-006, 1.583E-008
"DUMA8",    5766.71,   0.90802,    11.00, 3.53963E-006, 6.138E-008, 1.6947E-006, 2.939E-008, 5.08411E-006, 1.58E-008
"SSU_DSARCNTR_IR1",    5707.99,   0.89877,    11.00, 3.52343E-006, 6.173E-008, 1.5015E-006, 2.631E-008, 4.5045E-006, 1.615E-008
"DUMA9",    5815.85,   0.91576,    11.00, 3.55175E-006, 6.107E-008, 1.55982E-006, 2.682E-008, 4.67945E-006, 1.547E-008
"DUMA1",    5870.87,   0.92442,    11.00, 3.56978E-006, 6.08E-008, 1.58598E-006, 2.701E-008, 4.75795E-006, 1.52E-008
"ELITE",    5890.59,   0.92753,    11.00, 3.57626E-006, 6.071E-008, 1.59535E-006, 2.708E-008, 4.78604E-006, 1.51E-008
"DUMA10",    5791.75,   0.91196,    11.00, 3.54794E-006, 6.126E-008, 1.54199E-006, 2.662E-008, 4.62598E-006, 1.567E-008
"BALAIPOLIS",    5792.91,   0.91215,    11.00, 3.54836E-006, 6.125E-008, 1.54247E-006, 2.663E-008, 4.62742E-006, 1.566E-008
"PPU_DUMA_VCB1",          0,         0,    33.00,          0,        0,          0,        0,          0,        0
